-------------------------------------------------------
          Amber 8  SANDER                 Scripps/UCSF 2004
          -------------------------------------------------------

  [-O]verwriting output

File Assignments:

 Here is the input file:

1cgh: 100ps MD
 &cntrl
    imin = 0, irest = 1, ntx = 7,
    ntb = 2, pres0 = 1.0, ntp = 1,
    taup = 2.0,
    cut = 10, ntr = 0,
    ntc = 2, ntf = 2,
    tempi = 300.0, temp0 = 300.0,
    ntt = 3, gamma_ln = 1.0,
    nstlim = 50000, dt = 0.002,
    ntpr = 100, ntwx = 500, ntwr = 1000
 /

--------------------------------------------------------------------------------
   1.  RESOURCE   USE:
--------------------------------------------------------------------------------

 getting new box info from bottom of inpcrd
 NATOM  =   29776 NTYPES =      18 NBONH =   27929 MBONA  =    1859
 NTHETH =    4126 MTHETA =    2513 NPHIH =    7341 MPHIA  =    3511
 NHPARM =       0 NPARM  =       0 NNB   =   54902 NRES   =    8953
 NBONA  =    1859 NTHETA =    2513 NPHIA =    3511 NUMBND =      46
 NUMANG =     100 NPTRA  =      38 NATYP =      31 NPHB   =       1
 IFBOX  =       2 NMXRS  =      24 IFCAP =       0 NEXTRA =       0
 NCOPY  =       0

     BOX TYPE: TRUNCATED OCTAHEDRON

--------------------------------------------------------------------------------
   2.  CONTROL  DATA  FOR  THE  RUN
--------------------------------------------------------------------------------

General flags:
     imin    =       0, nmropt  =       0

Nature and format of input:
     ntx     =       7, irest   =       1, ntrx    =       1

Nature and format of output:
     ntxo    =       1, ntpr    =     100, ntrx    =       1, ntwr    =    1000
     iwrap   =       0, ntwx    =     500, ntwv    =       0, ntwe    =       0
     ioutfm  =       0, ntwprt  =       0, idecomp =       0, rbornstat=      0

Potential function:
     ntf     =       2, ntb     =       2, igb     =       0, nsnb    =      25
     ipol    =       0, gbsa    =       0, iesp    =       0
     dielc   =   1.00000, cut     =  10.00000, intdiel =   1.00000
     scnb    =   2.00000, scee    =   1.20000

Frozen or restrained atoms:
     ibelly  =       0, ntr     =       0

Molecular dynamics:
     nstlim  =   50000, nscm    =    1000, nrespa  =       1
     t       =   0.00000, dt      =   0.00200, vlimit  =  20.00000

Langevin dynamics temperature regulation:
     ig      =   71277
     temp0   = 300.00000, tempi   = 300.00000, gamma_ln=   1.00000

Pressure regulation:
     ntp     =       1
     pres0   =   1.00000, comp    =  44.60000, taup    =   2.00000

SHAKE:
     ntc     =       2, jfastw  =       0
     tol     =   0.00001

Ewald parameters:
     verbose =       0, ew_type =       0, nbflag  =       1, use_pme =       1
     vdwmeth =       1, eedmeth =       1, netfrc  =       1
     Box X =   76.158   Box Y =   76.158   Box Z =   76.158
     Alpha =  109.471   Beta  =  109.471   Gamma =  109.471
     NFFT1 =   80       NFFT2 =   80       NFFT3 =   80
     Cutoff=   10.000   Tol   =0.100E-04
     Ewald Coefficient =  0.27511
     Interpolation order =    4

--------------------------------------------------------------------------------
   3.  ATOMIC COORDINATES AND VELOCITIES
--------------------------------------------------------------------------------

 begin time read from input coords =    10.000 ps

 Number of triangulated 3-point waters found:     8698

     Sum of charges from parm topology file =  -0.00000025
     Forcing neutrality...

--------------------------------------------------------------------------------
   4.  RESULTS
 NSTEP =      100   TIME(PS) =      10.200  TEMP(K) =   297.23  PRESS = -1257.4
 Etot   =    -73238.8859  EKtot   =     18131.6434  EPtot      =    -91370.5294
 BOND   =       654.2822  ANGLE   =      1929.4666  DIHED      =       775.1417
 1-4 NB =       817.8912  1-4 EEL =      4242.6763  VDWAALS    =      9440.1805
 EELEC  =   -109230.1680  EHBOND  =         0.0000  RESTRAINT  =         0.0000
 EKCMT  =      7732.1695  VIRIAL  =     16916.4636  VOLUME     =    338304.5955
                                                    Density    =         0.9012
 Ewald error estimate:   0.1550E-03
 ------------------------------------------------------------------------------

      A V E R A G E S   O V E R   50000 S T E P S

 NSTEP =    50000   TIME(PS) =     110.000  TEMP(K) =   300.05  PRESS =   -58.8
 Etot   =    -75611.8336  EKtot   =     18304.1728  EPtot      =    -93916.0064
 BOND   =       707.3048  ANGLE   =      1969.8246  DIHED      =       779.5453
 1-4 NB =       805.7114  1-4 EEL =      4234.8293  VDWAALS    =     10199.3411
 EELEC  =   -112612.5630  EHBOND  =         0.0000  RESTRAINT  =         0.0000
 EKCMT  =      7833.6797  VIRIAL  =      8238.0381  VOLUME     =    299230.3628
                                                    Density    =         1.0193
 Ewald error estimate:   0.7077E-04
 ------------------------------------------------------------------------------

      R M S  F L U C T U A T I O N S

 NSTEP =    50000   TIME(PS) =     110.000  TEMP(K) =     1.71  PRESS =   229.2
 Etot   =       504.5721  EKtot   =       104.3052  EPtot      =       480.3409
 BOND   =        22.2194  ANGLE   =        31.9510  DIHED      =        19.1584
 1-4 NB =        11.5341  1-4 EEL =        33.2840  VDWAALS    =       166.3148
 EELEC  =       605.2530  EHBOND  =         0.0000  RESTRAINT  =         0.0000
 EKCMT  =        68.7591  VIRIAL  =      1566.5498  VOLUME     =      6524.4607
                                                    Density    =         0.0205
 Ewald error estimate:   0.5235E-04
 ------------------------------------------------------------------------------
