-------------------------------------------------------
          Amber 8  SANDER                 Scripps/UCSF 2004
          -------------------------------------------------------

  [-O]verwriting output

File Assignments:

 Here is the input file:

1cgh: 1ps MD with restraints on protein
 &cntrl
  imin   = 0,
  irest  = 0,
  ntx    = 1,
  ntb    = 1,
  cut    = 10,
  ntr    = 1,
  ntc    = 2,
  ntf    = 2,
  tempi  = 0.0,
  temp0  = 300.0,
  ntt    = 3,
  gamma_ln = 1.0,
  nstlim = 5000, dt = 0.002
  ntpr = 100, ntwx = 100, ntwr = 1000
 /
Keep protein fixed with weak restraints
10.0
RES 1 228
END
END

--------------------------------------------------------------------------------
   1.  RESOURCE   USE:
--------------------------------------------------------------------------------

 getting new box info from bottom of inpcrd
 NATOM  =   29776 NTYPES =      18 NBONH =   27929 MBONA  =    1859
 NTHETH =    4126 MTHETA =    2513 NPHIH =    7341 MPHIA  =    3511
 NHPARM =       0 NPARM  =       0 NNB   =   54902 NRES   =    8953
 NBONA  =    1859 NTHETA =    2513 NPHIA =    3511 NUMBND =      46
 NUMANG =     100 NPTRA  =      38 NATYP =      31 NPHB   =       1
 IFBOX  =       2 NMXRS  =      24 IFCAP =       0 NEXTRA =       0
 NCOPY  =       0

     BOX TYPE: TRUNCATED OCTAHEDRON

--------------------------------------------------------------------------------
   2.  CONTROL  DATA  FOR  THE  RUN
--------------------------------------------------------------------------------

General flags:
     imin    =       0, nmropt  =       0

Nature and format of input:
     ntx     =       1, irest   =       0, ntrx    =       1

Nature and format of output:
     ntxo    =       1, ntpr    =     100, ntrx    =       1, ntwr    =    1000
     iwrap   =       0, ntwx    =     100, ntwv    =       0, ntwe    =       0
     ioutfm  =       0, ntwprt  =       0, idecomp =       0, rbornstat=      0

Potential function:
     ntf     =       2, ntb     =       1, igb     =       0, nsnb    =      25
     ipol    =       0, gbsa    =       0, iesp    =       0
     dielc   =   1.00000, cut     =  10.00000, intdiel =   1.00000
     scnb    =   2.00000, scee    =   1.20000

Frozen or restrained atoms:
     ibelly  =       0, ntr     =       1

Molecular dynamics:
     nstlim  =    5000, nscm    =    1000, nrespa  =       1
     t       =   0.00000, dt      =   0.00200, vlimit  =  20.00000

Langevin dynamics temperature regulation:
     ig      =   71277
     temp0   = 300.00000, tempi   =   0.00000, gamma_ln=   1.00000

SHAKE:
     ntc     =       2, jfastw  =       0
     tol     =   0.00001

Ewald parameters:
     verbose =       0, ew_type =       0, nbflag  =       1, use_pme =       1
     vdwmeth =       1, eedmeth =       1, netfrc  =       1
     Box X =   76.158   Box Y =   76.158   Box Z =   76.158
     Alpha =  109.471   Beta  =  109.471   Gamma =  109.471
     NFFT1 =   80       NFFT2 =   80       NFFT3 =   80
     Cutoff=   10.000   Tol   =0.100E-04
     Ewald Coefficient =  0.27511
     Interpolation order =    4

    LOADING THE CONSTRAINED ATOMS AS GROUPS

   5.  REFERENCE ATOM COORDINATES

    ----- READING GROUP     1; TITLE:
 Keep protein fixed with weak restraints

     GROUP    1 HAS HARMONIC CONSTRAINTS    10.00000
 GRP    1 RES    1 TO   228
      Number of atoms in this group  =  3655
    ----- END OF GROUP READ -----

--------------------------------------------------------------------------------
   3.  ATOMIC COORDINATES AND VELOCITIES
--------------------------------------------------------------------------------

 begin time read from input coords =     0.000 ps

 Number of triangulated 3-point waters found:     8698

     Sum of charges from parm topology file =  -0.00000025
     Forcing neutrality...

--------------------------------------------------------------------------------
   4.  RESULTS
 NSTEP =        0   TIME(PS) =       0.000  TEMP(K) =     0.00  PRESS =     0.0
 Etot   =   -128258.4911  EKtot   =         0.0000  EPtot      =   -128258.4911
 BOND   =       134.0022  ANGLE   =       612.8353  DIHED      =       417.4483
 1-4 NB =       700.6320  1-4 EEL =      4229.8849  VDWAALS    =     19165.3817
 EELEC  =   -153518.6755  EHBOND  =         0.0000  RESTRAINT  =         0.0000
 Ewald error estimate:   0.1079E-03
 ------------------------------------------------------------------------------

      A V E R A G E S   O V E R    5000 S T E P S

 NSTEP =     5000   TIME(PS) =      10.000  TEMP(K) =   268.07  PRESS =     0.0
 Etot   =    -77641.1105  EKtot   =     16353.3271  EPtot      =    -93994.4376
 BOND   =       617.7996  ANGLE   =      1667.5914  DIHED      =       643.7859
 1-4 NB =       770.4710  1-4 EEL =      4207.6967  VDWAALS    =     10493.4621
 EELEC  =   -113000.0187  EHBOND  =         0.0000  RESTRAINT  =       604.7743
 EAMBER (non-restraint)  =    -94599.2119
 Ewald error estimate:   0.6694E-04
 ------------------------------------------------------------------------------

      R M S  F L U C T U A T I O N S

 NSTEP =     5000   TIME(PS) =      10.000  TEMP(K) =    56.91  PRESS =     0.0
 Etot   =      8185.1121  EKtot   =      3471.6119  EPtot      =      4745.1956
 BOND   =       107.7070  ANGLE   =       234.9096  DIHED      =        50.1280
 1-4 NB =        17.5513  1-4 EEL =        22.8204  VDWAALS    =      1538.5613
 EELEC  =      5739.3192  EHBOND  =         0.0000  RESTRAINT  =       134.0201
 EAMBER (non-restraint)  =      4611.1755
 Ewald error estimate:   0.4885E-04
 ------------------------------------------------------------------------------
