data__24.248711_21.000000_20
200
_symmetry_space_group_name_' '
_cell_length_a 24.2487
_cell_length_b 21
_cell_length_c 20
_cell_angle_alpha 90
_cell_angle_beta  90
_cell_angle_gamma 90
loop_
_atom_site_label
_atom_site_type_symbol
_atom_site_fract_x
_atom_site_fract_y
_atom_site_fract_z
    1GRA    C     0.025    0.033    0.500
    1GRA    C     0.075    0.067    0.500
    1GRA    C     0.075    0.133    0.500
    1GRA    C     0.025    0.167    0.500
    1GRA    C     0.025    0.233    0.500
    1GRA    C     0.075    0.267    0.500
    1GRA    C     0.075    0.333    0.500
    1GRA    C     0.025    0.367    0.500
    1GRA    C     0.025    0.433    0.500
    1GRA    C     0.075    0.467    0.500
    1GRA    C     0.075    0.533    0.500
    1GRA    C     0.025    0.567    0.500
    1GRA    C     0.025    0.633    0.500
    1GRA    C     0.075    0.667    0.500
    1GRA    C     0.075    0.733    0.500
    1GRA    C     0.025    0.767    0.500
    1GRA    C     0.025    0.833    0.500
    1GRA    C     0.075    0.867    0.500
    1GRA    C     0.075    0.933    0.500
    1GRA    C     0.025    0.967    0.500
    1GRA    C     0.125    0.033    0.500
    1GRA    C     0.175    0.067    0.500
    1GRA    C     0.175    0.133    0.500
    1GRA    C     0.125    0.167    0.500
    1GRA    C     0.125    0.233    0.500
    1GRA    C     0.175    0.267    0.500
    1GRA    C     0.175    0.333    0.500
    1GRA    C     0.125    0.367    0.500
    1GRA    C     0.125    0.433    0.500
    1GRA    C     0.175    0.467    0.500
    1GRA    C     0.175    0.533    0.500
    1GRA    C     0.125    0.567    0.500
    1GRA    C     0.125    0.633    0.500
    1GRA    C     0.175    0.667    0.500
    1GRA    C     0.175    0.733    0.500
    1GRA    C     0.125    0.767    0.500
    1GRA    C     0.125    0.833    0.500
    1GRA    C     0.175    0.867    0.500
    1GRA    C     0.175    0.933    0.500
    1GRA    C     0.125    0.967    0.500
    1GRA    C     0.225    0.033    0.500
    1GRA    C     0.275    0.067    0.500
    1GRA    C     0.275    0.133    0.500
    1GRA    C     0.225    0.167    0.500
    1GRA    C     0.225    0.233    0.500
    1GRA    C     0.275    0.267    0.500
    1GRA    C     0.275    0.333    0.500
    1GRA    C     0.225    0.367    0.500
    1GRA    C     0.225    0.433    0.500
    1GRA    C     0.275    0.467    0.500
    1GRA    C     0.275    0.533    0.500
    1GRA    C     0.225    0.567    0.500
    1GRA    C     0.225    0.633    0.500
    1GRA    C     0.275    0.667    0.500
    1GRA    C     0.275    0.733    0.500
    1GRA    C     0.225    0.767    0.500
    1GRA    C     0.225    0.833    0.500
    1GRA    C     0.275    0.867    0.500
    1GRA    C     0.275    0.933    0.500
    1GRA    C     0.225    0.967    0.500
    1GRA    C     0.325    0.033    0.500
    1GRA    C     0.375    0.067    0.500
    1GRA    C     0.375    0.133    0.500
    1GRA    C     0.325    0.167    0.500
    1GRA    C     0.325    0.233    0.500
    1GRA    C     0.375    0.267    0.500
    1GRA    C     0.375    0.333    0.500
    1GRA    C     0.325    0.367    0.500
    1GRA    C     0.325    0.433    0.500
    1GRA    C     0.375    0.467    0.500
    1GRA    C     0.375    0.533    0.500
    1GRA    C     0.325    0.567    0.500
    1GRA    C     0.325    0.633    0.500
    1GRA    C     0.375    0.667    0.500
    1GRA    C     0.375    0.733    0.500
    1GRA    C     0.325    0.767    0.500
    1GRA    C     0.325    0.833    0.500
    1GRA    C     0.375    0.867    0.500
    1GRA    C     0.375    0.933    0.500
    1GRA    C     0.325    0.967    0.500
    1GRA    C     0.425    0.033    0.500
    1GRA    C     0.475    0.067    0.500
    1GRA    C     0.475    0.133    0.500
    1GRA    C     0.425    0.167    0.500
    1GRA    C     0.425    0.233    0.500
    1GRA    C     0.475    0.267    0.500
    1GRA    C     0.475    0.333    0.500
    1GRA    C     0.425    0.367    0.500
    1GRA    C     0.425    0.433    0.500
    1GRA    C     0.475    0.467    0.500
    1GRA    C     0.475    0.533    0.500
    1GRA    C     0.425    0.567    0.500
    1GRA    C     0.425    0.633    0.500
    1GRA    C     0.475    0.667    0.500
    1GRA    C     0.475    0.733    0.500
    1GRA    C     0.425    0.767    0.500
    1GRA    C     0.425    0.833    0.500
    1GRA    C     0.475    0.867    0.500
    1GRA    C     0.475    0.933    0.500
    1GRA    C     0.425    0.967    0.500
    1GRA    C     0.525    0.033    0.500
    1GRA    C     0.575    0.067    0.500
    1GRA    C     0.575    0.133    0.500
    1GRA    C     0.525    0.167    0.500
    1GRA    C     0.525    0.233    0.500
    1GRA    C     0.575    0.267    0.500
    1GRA    C     0.575    0.333    0.500
    1GRA    C     0.525    0.367    0.500
    1GRA    C     0.525    0.433    0.500
    1GRA    C     0.575    0.467    0.500
    1GRA    C     0.575    0.533    0.500
    1GRA    C     0.525    0.567    0.500
    1GRA    C     0.525    0.633    0.500
    1GRA    C     0.575    0.667    0.500
    1GRA    C     0.575    0.733    0.500
    1GRA    C     0.525    0.767    0.500
    1GRA    C     0.525    0.833    0.500
    1GRA    C     0.575    0.867    0.500
    1GRA    C     0.575    0.933    0.500
    1GRA    C     0.525    0.967    0.500
    1GRA    C     0.625    0.033    0.500
    1GRA    C     0.675    0.067    0.500
    1GRA    C     0.675    0.133    0.500
    1GRA    C     0.625    0.167    0.500
    1GRA    C     0.625    0.233    0.500
    1GRA    C     0.675    0.267    0.500
    1GRA    C     0.675    0.333    0.500
    1GRA    C     0.625    0.367    0.500
    1GRA    C     0.625    0.433    0.500
    1GRA    C     0.675    0.467    0.500
    1GRA    C     0.675    0.533    0.500
    1GRA    C     0.625    0.567    0.500
    1GRA    C     0.625    0.633    0.500
    1GRA    C     0.675    0.667    0.500
    1GRA    C     0.675    0.733    0.500
    1GRA    C     0.625    0.767    0.500
    1GRA    C     0.625    0.833    0.500
    1GRA    C     0.675    0.867    0.500
    1GRA    C     0.675    0.933    0.500
    1GRA    C     0.625    0.967    0.500
    1GRA    C     0.725    0.033    0.500
    1GRA    C     0.775    0.067    0.500
    1GRA    C     0.775    0.133    0.500
    1GRA    C     0.725    0.167    0.500
    1GRA    C     0.725    0.233    0.500
    1GRA    C     0.775    0.267    0.500
    1GRA    C     0.775    0.333    0.500
    1GRA    C     0.725    0.367    0.500
    1GRA    C     0.725    0.433    0.500
    1GRA    C     0.775    0.467    0.500
    1GRA    C     0.775    0.533    0.500
    1GRA    C     0.725    0.567    0.500
    1GRA    C     0.725    0.633    0.500
    1GRA    C     0.775    0.667    0.500
    1GRA    C     0.775    0.733    0.500
    1GRA    C     0.725    0.767    0.500
    1GRA    C     0.725    0.833    0.500
    1GRA    C     0.775    0.867    0.500
    1GRA    C     0.775    0.933    0.500
    1GRA    C     0.725    0.967    0.500
    1GRA    C     0.825    0.033    0.500
    1GRA    C     0.875    0.067    0.500
    1GRA    C     0.875    0.133    0.500
    1GRA    C     0.825    0.167    0.500
    1GRA    C     0.825    0.233    0.500
    1GRA    C     0.875    0.267    0.500
    1GRA    C     0.875    0.333    0.500
    1GRA    C     0.825    0.367    0.500
    1GRA    C     0.825    0.433    0.500
    1GRA    C     0.875    0.467    0.500
    1GRA    C     0.875    0.533    0.500
    1GRA    C     0.825    0.567    0.500
    1GRA    C     0.825    0.633    0.500
    1GRA    C     0.875    0.667    0.500
    1GRA    C     0.875    0.733    0.500
    1GRA    C     0.825    0.767    0.500
    1GRA    C     0.825    0.833    0.500
    1GRA    C     0.875    0.867    0.500
    1GRA    C     0.875    0.933    0.500
    1GRA    C     0.825    0.967    0.500
    1GRA    C     0.925    0.033    0.500
    1GRA    C     0.975    0.067    0.500
    1GRA    C     0.975    0.133    0.500
    1GRA    C     0.925    0.167    0.500
    1GRA    C     0.925    0.233    0.500
    1GRA    C     0.975    0.267    0.500
    1GRA    C     0.975    0.333    0.500
    1GRA    C     0.925    0.367    0.500
    1GRA    C     0.925    0.433    0.500
    1GRA    C     0.975    0.467    0.500
    1GRA    C     0.975    0.533    0.500
    1GRA    C     0.925    0.567    0.500
    1GRA    C     0.925    0.633    0.500
    1GRA    C     0.975    0.667    0.500
    1GRA    C     0.975    0.733    0.500
    1GRA    C     0.925    0.767    0.500
    1GRA    C     0.925    0.833    0.500
    1GRA    C     0.975    0.867    0.500
    1GRA    C     0.975    0.933    0.500
    1GRA    C     0.925    0.967    0.500
